Input Parameters:
   integrator                     = md
   tinit                          = 0
   dt                             = 0.002
   nsteps                         = 500000
   init-step                      = 0
   simulation-part                = 1
   comm-mode                      = Linear
   nstcomm                        = 100
   bd-fric                        = 0
   ld-seed                        = -86426785
   emtol                          = 10
   emstep                         = 0.01
   niter                          = 20
   fcstep                         = 0
   nstcgsteep                     = 1000
   nbfgscorr                      = 10
   rtpi                           = 0.05
   nstxout                        = 0
   nstvout                        = 0
   nstfout                        = 0
   nstlog                         = 5000
   nstcalcenergy                  = 100
   nstenergy                      = 5000
   nstxout-compressed             = 5000
   compressed-x-precision         = 1000
   cutoff-scheme                  = Verlet
   nstlist                        = 10
   ns-type                        = Grid
   pbc                            = xyz
   periodic-molecules             = false
   verlet-buffer-tolerance        = 0.005
   rlist                          = 1
   coulombtype                    = PME
   coulomb-modifier               = Potential-shift
   rcoulomb-switch                = 0
   rcoulomb                       = 1
   epsilon-r                      = 1
   epsilon-rf                     = inf
   vdw-type                       = Cut-off
   vdw-modifier                   = Potential-shift
   rvdw-switch                    = 0
   rvdw                           = 1
   DispCorr                       = EnerPres
   table-extension                = 1
   fourierspacing                 = 0.16
   fourier-nx                     = 40
   fourier-ny                     = 40
   fourier-nz                     = 40
   pme-order                      = 4
   ewald-rtol                     = 1e-05
   ewald-rtol-lj                  = 0.001
   lj-pme-comb-rule               = Geometric
   ewald-geometry                 = 0
   epsilon-surface                = 0
   tcoupl                         = V-rescale
   nsttcouple                     = 10
   nh-chain-length                = 0
   print-nose-hoover-chain-variables = false
   pcoupl                         = Parrinello-Rahman
   pcoupltype                     = Isotropic
   nstpcouple                     = 10
   tau-p                          = 2
   compressibility (3x3):
      compressibility[    0]={ 4.50000e-05,  0.00000e+00,  0.00000e+00}
      compressibility[    1]={ 0.00000e+00,  4.50000e-05,  0.00000e+00}
      compressibility[    2]={ 0.00000e+00,  0.00000e+00,  4.50000e-05}
   ref-p (3x3):
      ref-p[    0]={ 1.00000e+00,  0.00000e+00,  0.00000e+00}
      ref-p[    1]={ 0.00000e+00,  1.00000e+00,  0.00000e+00}
      ref-p[    2]={ 0.00000e+00,  0.00000e+00,  1.00000e+00}
   refcoord-scaling               = No
   posres-com (3):
      posres-com[0]= 0.00000e+00
      posres-com[1]= 0.00000e+00
      posres-com[2]= 0.00000e+00
   posres-comB (3):
      posres-comB[0]= 0.00000e+00
      posres-comB[1]= 0.00000e+00
      posres-comB[2]= 0.00000e+00
   QMMM                           = false
   QMconstraints                  = 0
   QMMMscheme                     = 0
   MMChargeScaleFactor            = 1
qm-opts:
   ngQM                           = 0
   constraint-algorithm           = Lincs
   continuation                   = true
   Shake-SOR                      = false
   shake-tol                      = 0.0001
   lincs-order                    = 4
   lincs-iter                     = 1
   lincs-warnangle                = 30
   nwall                          = 0
   wall-type                      = 9-3
   wall-r-linpot                  = -1
   wall-atomtype[0]               = -1
   wall-atomtype[1]               = -1
   wall-density[0]                = 0
   wall-density[1]                = 0
   wall-ewald-zfac                = 3
   pull                           = false
   awh                            = false
   rotation                       = false
   interactiveMD                  = false
   disre                          = No
   disre-weighting                = Conservative
   disre-mixed                    = false
   dr-fc                          = 1000
   dr-tau                         = 0
   nstdisreout                    = 100
   orire-fc                       = 0
   orire-tau                      = 0
   nstorireout                    = 100
   free-energy                    = no
   cos-acceleration               = 0
   deform (3x3):
      deform[    0]={ 0.00000e+00,  0.00000e+00,  0.00000e+00}
      deform[    1]={ 0.00000e+00,  0.00000e+00,  0.00000e+00}
      deform[    2]={ 0.00000e+00,  0.00000e+00,  0.00000e+00}
   simulated-tempering            = false
   swapcoords                     = no
   userint1                       = 0
   userint2                       = 0
   userint3                       = 0
   userint4                       = 0
   userreal1                      = 0
   userreal2                      = 0
   userreal3                      = 0
   userreal4                      = 0
   applied-forces:
     electric-field:
       x:
         E0                       = 0
         omega                    = 0
         t0                       = 0
         sigma                    = 0
       y:
         E0                       = 0
         omega                    = 0
         t0                       = 0
         sigma                    = 0
       z:
         E0                       = 0
         omega                    = 0
         t0                       = 0
         sigma                    = 0
grpopts:
   nrdf:     222.982       36393
   ref-t:         300         300
   tau-t:         0.1         0.1
annealing:          No          No
annealing-npoints:           0           0
   acc:	           0           0           0
   nfreeze:           N           N           N
   energygrp-flags[  0]: 0

The -nsteps functionality is deprecated, and may be removed in a future version. Consider using gmx convert-tpr -nsteps or changing the appropriate .mdp file field.

Overriding nsteps with value passed on the command line: 5000 steps, 10 ps
Changing nstlist from 10 to 100, rlist from 1 to 1.16

This is simulation 1 out of 4 running as a composite GROMACS
multi-simulation job. Setup for this simulation:

Using 1 MPI process
Using 1 OpenMP thread

1 GPU selected for this run.
Mapping of GPU IDs to the 8 GPU tasks in the 4 ranks on this node:
  PP:0,PME:0,PP:0,PME:0,PP:0,PME:0,PP:0,PME:0
PP tasks will do (non-perturbed) short-ranged interactions on the GPU
PME tasks will do all aspects on the GPU
Pinning threads with an auto-selected logical core stride of 2
System total charge: -0.000
Will do PME sum in reciprocal space for electrostatic interactions.

Using a Gaussian width (1/beta) of 0.320163 nm for Ewald
Potential shift: LJ r^-12: -1.000e+00 r^-6: -1.000e+00, Ewald -1.000e-05
Initialized non-bonded Ewald correction tables, spacing: 9.33e-04 size: 1073

Long Range LJ corr.: <C6> 2.7900e-04
Generated table with 1079 data points for Ewald.
Tabscale = 500 points/nm
Generated table with 1079 data points for LJ6.
Tabscale = 500 points/nm
Generated table with 1079 data points for LJ12.
Tabscale = 500 points/nm
Generated table with 1079 data points for 1-4 COUL.
Tabscale = 500 points/nm
Generated table with 1079 data points for 1-4 LJ6.
Tabscale = 500 points/nm
Generated table with 1079 data points for 1-4 LJ12.
Tabscale = 500 points/nm

Using GPU 8x8 nonbonded short-range kernels

Using a dual 8x4 pair-list setup updated with dynamic, rolling pruning:
  outer list: updated every 100 steps, buffer 0.160 nm, rlist 1.160 nm
  inner list: updated every  10 steps, buffer 0.002 nm, rlist 1.002 nm
At tolerance 0.005 kJ/mol/ps per atom, equivalent classical 1x1 list would be:
  outer list: updated every 100 steps, buffer 0.309 nm, rlist 1.309 nm
  inner list: updated every  10 steps, buffer 0.043 nm, rlist 1.043 nm

Using Lorentz-Berthelot Lennard-Jones combination rule

Initializing LINear Constraint Solver

The number of constraints is 38

Center of mass motion removal mode is Linear
We have the following groups for center of mass motion removal:
  0:  rest

There are: 18285 Atoms

Initializing Replica Exchange
Repl  There are 4 replicas:
Multi-checking the number of atoms ... OK
Multi-checking the integrator ... OK
Multi-checking init_step+nsteps ... OK
Multi-checking first exchange step: init_step/-replex ... OK
Multi-checking the temperature coupling ... OK
Multi-checking the number of temperature coupling groups ... OK
Multi-checking the pressure coupling ... OK
Multi-checking free energy ... OK
Multi-checking number of lambda states ... OK

Repl  Using Constant Pressure REMD.

Replica exchange in temperature
 300.0 300.0 300.0 300.0

Repl  p  1.00  1.00  1.00  1.00
Replica exchange interval: 500

Replica random seed: 438530342
Replica exchange information below: ex and x = exchange, pr = probability

PLUMED: PLUMED is starting
PLUMED: Version: 2.5.4 (git: Unknown) compiled on Jun 30 2020 at 22:25:32
PLUMED: Please cite these papers when using PLUMED [1][2]
PLUMED: For further information see the PLUMED web page at http://www.plumed.org
PLUMED: Root: /home/ajay/software/spack/opt/spack/linux-ubuntu20.04-zen/gcc-8.4.0/plumed-2.5.4-fj3bvzohxjh542l3z47n75jgif2azgtk/lib/plumed
PLUMED: For installed feature, see /home/ajay/software/spack/opt/spack/linux-ubuntu20.04-zen/gcc-8.4.0/plumed-2.5.4-fj3bvzohxjh542l3z47n75jgif2azgtk/lib/plumed/src/config/config.txt
PLUMED: Molecular dynamics engine: gromacs
PLUMED: Precision of reals: 4
PLUMED: Running over 1 node
PLUMED: Number of threads: 1
PLUMED: Cache line size: 512
PLUMED: Number of atoms: 18285
PLUMED: GROMACS-like replica exchange is on
PLUMED: File suffix: .1
PLUMED: FILE: ../plumed_rect.dat
PLUMED: Action GYRATION
PLUMED:   with label rg
PLUMED:   GYRATION RADIUS (Rg);
PLUMED:   atoms involved :
PLUMED: 5 12 19 26 33 40 47 54 61 68 75 82
PLUMED:   broken molecules will be rebuilt assuming atoms are in the proper order
PLUMED: Action DISTANCE
PLUMED:   with label re
PLUMED:   between atoms 5 82
PLUMED:   using periodic boundary conditions
PLUMED: Action PRINT
PLUMED:   with label @2
PLUMED:   with stride 500
PLUMED:   with arguments rg re
PLUMED:   on file COLVAR
PLUMED:   with format  %f
PLUMED: Action METAD
PLUMED:   with label b
PLUMED:   with arguments re
PLUMED:   added component to this action:  b.bias
PLUMED:   You are using RECT
PLUMED:   Binsize not specified, 1/5 of sigma will be be used
PLUMED:   Gaussian width  0.100000  Gaussian height 0.685943
PLUMED:   Gaussian deposition pace 500
PLUMED:   Gaussian file HILLSre
PLUMED:   Well-Tempered Bias Factor 2.100000
PLUMED:   Hills relaxation time (tau) 4.000000
PLUMED:   KbT 2.494339
PLUMED:   Grid min 0
PLUMED:   Grid max 5.0
PLUMED:   Grid bin 250
PLUMED:   Grid uses spline interpolation
PLUMED:   added component to this action:  b.work
PLUMED:   You are using RECT
PLUMED:   Bibliography [3][4][5]
PLUMED: Action METAD
PLUMED:   with label c
PLUMED:   with arguments rg
PLUMED:   added component to this action:  c.bias
PLUMED:   You are using RECT
PLUMED:   Binsize not specified, 1/5 of sigma will be be used
PLUMED:   Gaussian width  0.100000  Gaussian height 0.685943
PLUMED:   Gaussian deposition pace 500
PLUMED:   Gaussian file HILLSrg
PLUMED:   Well-Tempered Bias Factor 2.100000
PLUMED:   Hills relaxation time (tau) 4.000000
PLUMED:   KbT 2.494339
PLUMED:   Grid min 0
PLUMED:   Grid max 5.0
PLUMED:   Grid bin 250
PLUMED:   Grid uses spline interpolation
PLUMED:   added component to this action:  c.work
PLUMED:   You are using concurrent metadynamics
PLUMED:   You are using RECT
PLUMED:   Bibliography [3][4][5]
PLUMED: END FILE: ../plumed_rect.dat
PLUMED: Timestep: 0.002000
PLUMED: KbT: 2.494339
PLUMED: Relevant bibliography:
PLUMED:   [1] The PLUMED consortium, Nat. Methods 16, 670 (2019)
PLUMED:   [2] Tribello, Bonomi, Branduardi, Camilloni, and Bussi, Comput. Phys. Commun. 185, 604 (2014)
PLUMED:   [3] Laio and Parrinello, PNAS 99, 12562 (2002)
PLUMED:   [4] Barducci, Bussi, and Parrinello, Phys. Rev. Lett. 100, 020603 (2008)
PLUMED:   [5] Gil-Ley and Bussi, J. Chem. Theory Comput. 11, 1077 (2015)
PLUMED: Please read and cite where appropriate!
PLUMED: Finished setup
Started mdrun on rank 0 Mon Aug 10 15:03:23 2020

           Step           Time
              0        0.00000

   Energies (kJ/mol)
           Bond          Angle    Proper Dih.  Improper Dih.          LJ-14
    6.61783e+01    1.62769e+02    1.71641e+02    1.22417e+01    5.46909e+01
     Coulomb-14        LJ (SR)  Disper. corr.   Coulomb (SR)   Coul. recip.
    3.08175e+03    3.75068e+04   -2.11282e+03   -2.84440e+05    1.56440e+03
      Potential    Kinetic En.   Total Energy  Conserved En.    Temperature
   -2.43932e+05    4.58786e+04   -1.98054e+05   -1.98042e+05    3.01394e+02
   -1.90169e+02   -3.24430e+02    2.04799e-06

	<====  A V E R A G E S  ====>

	Statistics over 5001 steps using 51 frames

   Energies (kJ/mol)
           Bond          Angle    Proper Dih.  Improper Dih.          LJ-14
    6.70587e+01    1.71152e+02    1.76209e+02    1.53074e+01    6.80777e+01
     Coulomb-14        LJ (SR)  Disper. corr.   Coulomb (SR)   Coul. recip.
    3.10304e+03    3.82860e+04   -2.11447e+03   -2.85126e+05    1.50535e+03
      Potential    Kinetic En.   Total Energy  Conserved En.    Temperature
   -2.43849e+05    4.56747e+04   -1.98174e+05   -1.98198e+05    3.00055e+02
 Pres. DC (bar) Pressure (bar)   Constr. rmsd
   -1.90469e+02    1.33567e+01    0.00000e+00

          Box-X          Box-Y          Box-Z
    6.39086e+00    6.39086e+00    4.51902e+00

   Total Virial (kJ/mol)
    1.53982e+04    6.58050e+01    1.52167e+02
    6.24224e+01    1.53021e+04    1.83589e+01
    1.52204e+02    1.96839e+01    1.47565e+04

   Pressure (bar)
   -4.19476e+01   -9.50121e+00   -2.01386e+01
   -8.89427e+00   -1.28103e+01   -9.20039e+00
   -2.01443e+01   -9.43798e+00    9.48280e+01

      T-Protein  T-non-Protein
    2.99048e+02    3.00061e+02

Replica exchange statistics
Repl  9 attempts, 5 odd, 4 even
Repl  average probabilities:
Repl     0    1    2    3
Repl      .68  .41  .44
Repl  number of exchanges:
Repl     0    1    2    3
Repl        3    2    2
Repl  average number of exchanges:
Repl     0    1    2    3
Repl      .60  .50  .40

Repl                Empirical Transition Matrix
Repl       1       2       3       4
Repl  0.6667  0.3333  0.0000  0.0000  0
Repl  0.3333  0.4444  0.2222  0.0000  1
Repl  0.0000  0.2222  0.5556  0.2222  2
Repl  0.0000  0.0000  0.2222  0.7778  3
